@<TRIPOS>MOLECULE
polymer
  254   253     1     0     0
SMALL
gas


@<TRIPOS>ATOM
      1 C1           1.1860    -5.0650     0.4320 c3         1 poly      0.459642
      2 C2           2.6380    -4.7260     0.5660 c3         1 poly      0.409096
      3 F1           0.5260    -4.6550     1.5100 f          1 poly     -0.164723
      4 F2           1.0480    -6.3800     0.3040 f          1 poly     -0.164723
      5 F3           0.6770    -4.4620    -0.6360 f          1 poly     -0.164723
      6 F4           2.7630    -3.4090     0.7000 f          1 poly     -0.188955
      7 F5           3.1310    -5.3300     1.6410 f          1 poly     -0.188955
      8 C3           3.3930    -5.1740    -0.6470 c3         1 poly      0.387411
      9 C4           4.7710    -4.5690    -0.6800 c3         1 poly      0.384646
     10 F6           3.4880    -6.5000    -0.6420 f          1 poly     -0.192108
     11 F7           2.7260    -4.7860    -1.7270 f          1 poly     -0.192108
     12 F8           4.7960    -3.5210     0.1350 f          1 poly     -0.192251
     13 F9           5.0310    -4.1710    -1.9210 f          1 poly     -0.192251
     14 C5           5.8340    -5.5500    -0.2610 c3         1 poly      0.384511
     15 C6           7.1850    -4.8740    -0.2110 c3         1 poly      0.384508
     16 F10          5.8720    -6.5450    -1.1410 f          1 poly     -0.192254
     17 F11          5.5400    -6.0320     0.9440 f          1 poly     -0.192254
     18 F12          7.3060    -4.2750     0.9670 f          1 poly     -0.192254
     19 F13          7.2430    -3.9630    -1.1770 f          1 poly     -0.192254
     20 C7           8.3250    -5.8550    -0.3960 c3         1 poly      0.384508
     21 C8           9.6360    -5.2870     0.1120 c3         1 poly      0.384508
     22 F14          8.0520    -6.9690     0.2760 f          1 poly     -0.192254
     23 F15          8.4410    -6.1350    -1.6910 f          1 poly     -0.192254
     24 F16          9.7250    -4.0210    -0.2810 f          1 poly     -0.192254
     25 F17          9.6180    -5.3350     1.4400 f          1 poly     -0.192254
     26 C9          10.8480    -6.0510    -0.4030 c3         1 poly      0.384507
     27 C10         12.1300    -5.5950     0.2710 c3         1 poly      0.384496
     28 F18         10.6710    -7.3480    -0.1690 f          1 poly     -0.192254
     29 F19         10.9570    -5.8510    -1.7120 f          1 poly     -0.192254
     30 F20         12.2610    -4.2900     0.0610 f          1 poly     -0.192254
     31 F21         12.0180    -5.8190     1.5770 f          1 poly     -0.192254
     32 C11         13.3760    -6.3090    -0.2490 c3         1 poly      0.384184
     33 C12         14.6530    -5.7290     0.3460 c3         1 poly      0.380123
     34 F22         13.3010    -7.5980     0.0660 f          1 poly     -0.192267
     35 F23         13.4350    -6.1790    -1.5710 f          1 poly     -0.192267
     36 F24         14.9350    -4.6020    -0.2980 f          1 poly     -0.192612
     37 F25         14.4250    -5.4590     1.6260 f          1 poly     -0.192612
     38 C13         15.8620    -6.6710     0.2670 c3         1 poly      0.354487
     39 C14         17.1140    -6.0370    -0.3750 c3         1 poly      0.380123
     40 O1          15.4950    -7.8200    -0.4250 os         1 poly     -0.266773
     41 F26         16.1730    -7.0190     1.5100 f          1 poly     -0.197588
     42 F27         16.9630    -4.7180    -0.3640 f          1 poly     -0.192612
     43 F28         17.1990    -6.4570    -1.6350 f          1 poly     -0.192612
     44 C15         18.4340    -6.3710     0.3540 c3         1 poly      0.384184
     45 C16         15.5200    -8.8840     0.4670 c3         1 poly      0.426964
     46 F29         14.7190    -8.6090     1.4890 f          1 poly     -0.168587
     47 F30         16.7600    -9.0430     0.9110 f          1 poly     -0.168587
     48 C17         15.0720   -10.1660    -0.1680 c3         1 poly      0.401351
     49 C18         13.5750   -10.2480    -0.1570 c3         1 poly      0.457691
     50 F31         13.1290   -10.2150     1.0950 f          1 poly     -0.164877
     51 F32         13.0720    -9.2210    -0.8350 f          1 poly     -0.164877
     52 F33         13.1890   -11.3860    -0.7240 f          1 poly     -0.164877
     53 O2          15.6660   -11.2020     0.5570 os         1 poly     -0.251081
     54 C19         14.9540   -12.3880     0.7420 c3         1 poly      0.551974
     55 F34         13.6870   -12.0970     1.0220 f          1 poly     -0.157269
     56 F35         15.4940   -13.0550     1.7560 f          1 poly     -0.157269
     57 C20         15.0070   -13.2500    -0.4770 c3         1 poly      0.667787
     58 F36         16.2400   -13.2360    -0.9700 f          1 poly     -0.085106
     59 F37         14.1600   -12.7760    -1.3870 f          1 poly     -0.085106
     60 S1          14.5460   -14.9060    -0.0580 s6         1 poly     -0.000530
     61 O3          15.4670   -15.4230     0.8720 o          1 poly     -0.464920
     62 O4          13.2630   -14.8930     0.5130 o          1 poly     -0.464920
     63 O5          14.5320   -15.8490    -1.3780 oh         1 poly     -0.051299
     64 F38         15.4980   -10.2080    -1.4250 f          1 poly     -0.191296
     65 C21         19.7180    -5.9250    -0.3920 c3         1 poly      0.384496
     66 F39         18.4860    -7.6850     0.5490 f          1 poly     -0.192267
     67 F40         18.4020    -5.7550     1.5320 f          1 poly     -0.192267
     68 F41         19.6240    -4.6230    -0.6230 f          1 poly     -0.192254
     69 F42         19.7750    -6.5710    -1.5530 f          1 poly     -0.192254
     70 C22         21.0270    -6.1860     0.3920 c3         1 poly      0.384507
     71 C23         22.3250    -5.7620    -0.3450 c3         1 poly      0.384508
     72 F43         21.0970    -7.4810     0.6720 f          1 poly     -0.192254
     73 F44         20.9570    -5.4930     1.5250 f          1 poly     -0.192254
     74 F45         22.3010    -4.4440    -0.4830 f          1 poly     -0.192254
     75 F46         22.3310    -6.3240    -1.5520 f          1 poly     -0.192254
     76 C24         23.6380    -6.1530     0.3890 c3         1 poly      0.384508
     77 C25         24.9440    -5.6060    -0.2530 c3         1 poly      0.384508
     78 F47         23.7150    -7.4770     0.4340 f          1 poly     -0.192254
     79 F48         23.5670    -5.6720     1.6260 f          1 poly     -0.192254
     80 F49         24.9260    -4.2830    -0.1400 f          1 poly     -0.192254
     81 F50         24.9500    -5.9300    -1.5450 f          1 poly     -0.192254
     82 C26         26.2670    -6.1260     0.3890 c3         1 poly      0.384508
     83 C27         27.5780    -5.5530    -0.2310 c3         1 poly      0.384508
     84 F51         26.2470    -5.8270     1.6850 f          1 poly     -0.192254
     85 F52         26.3000    -7.4460     0.2470 f          1 poly     -0.192254
     86 F53         27.6770    -6.0240    -1.4670 f          1 poly     -0.192254
     87 F54         27.4650    -4.2290    -0.2750 f          1 poly     -0.192254
     88 C28         28.9050    -5.8950     0.5250 c3         1 poly      0.384507
     89 C29         30.0950    -6.3280    -0.3830 c3         1 poly      0.384496
     90 F55         28.6530    -6.8810     1.3830 f          1 poly     -0.192254
     91 F56         29.2740    -4.8130     1.2030 f          1 poly     -0.192254
     92 F57         29.6850    -6.1380    -1.6310 f          1 poly     -0.192254
     93 F58         30.3050    -7.6280    -0.1980 f          1 poly     -0.192254
     94 C30         31.4610    -5.5800    -0.2380 c3         1 poly      0.384184
     95 C31         32.5600    -6.2210     0.6570 c3         1 poly      0.380123
     96 F59         31.9670    -5.4390    -1.4560 f          1 poly     -0.192267
     97 F60         31.1880    -4.3790     0.2610 f          1 poly     -0.192267
     98 F61         32.8700    -5.3370     1.5940 f          1 poly     -0.192612
     99 F62         32.0410    -7.3000     1.2330 f          1 poly     -0.192612
    100 C32         33.8950    -6.6370    -0.0520 c3         1 poly      0.354487
    101 C33         35.2000    -5.9600     0.4880 c3         1 poly      0.380123
    102 O6          34.0340    -8.0080     0.1300 os         1 poly     -0.266773
    103 F63         33.7820    -6.3520    -1.3440 f          1 poly     -0.197588
    104 F64         35.0820    -4.6490     0.3200 f          1 poly     -0.192612
    105 F65         35.3020    -6.2320     1.7830 f          1 poly     -0.192612
    106 C34         36.5300    -6.4120    -0.2100 c3         1 poly      0.384184
    107 C35         34.1540    -8.6850    -1.0730 c3         1 poly      0.426964
    108 F66         33.4520    -8.0520    -2.0040 f          1 poly     -0.168587
    109 F67         35.4300    -8.7300    -1.4350 f          1 poly     -0.168587
    110 C36         33.6360   -10.0820    -0.9120 c3         1 poly      0.401351
    111 C37         32.2230   -10.0490    -0.4210 c3         1 poly      0.457691
    112 F68         32.1610    -9.4350     0.7550 f          1 poly     -0.164877
    113 F69         31.4720    -9.3970    -1.3010 f          1 poly     -0.164877
    114 F70         31.7700   -11.2910    -0.2890 f          1 poly     -0.164877
    115 O7          34.4300   -10.7810    -0.0070 os         1 poly     -0.251081
    116 C38         34.5010   -12.1170    -0.3910 c3         1 poly      0.551974
    117 F71         33.7050   -12.3000    -1.4350 f          1 poly     -0.157269
    118 F72         35.7530   -12.4150    -0.7280 f          1 poly     -0.157269
    119 C39         34.0720   -13.0140     0.7250 c3         1 poly      0.667787
    120 F73         34.8610   -12.8180     1.7780 f          1 poly     -0.085106
    121 F74         32.8160   -12.7280     1.0570 f          1 poly     -0.085106
    122 S2          34.1630   -14.7040     0.2200 s6         1 poly     -0.000530
    123 O8          35.4870   -15.0300    -0.1120 o          1 poly     -0.464920
    124 O9          33.7330   -15.5240     1.2850 o          1 poly     -0.464920
    125 O10         33.2070   -14.9670    -1.0620 oh         1 poly     -0.051299
    126 F75         33.6770   -10.6990    -2.0920 f          1 poly     -0.191296
    127 C40         37.8600    -5.8480     0.4040 c3         1 poly      0.384496
    128 F76         36.5900    -7.7400    -0.1810 f          1 poly     -0.192267
    129 F77         36.4770    -6.0080    -1.4740 f          1 poly     -0.192267
    130 F78         37.8140    -4.5230     0.3200 f          1 poly     -0.192254
    131 F79         37.9160    -6.2030     1.6840 f          1 poly     -0.192254
    132 C41         39.1830    -6.3220    -0.2910 c3         1 poly      0.384507
    133 C42         40.5120    -5.6780     0.2360 c3         1 poly      0.384508
    134 F80         39.2720    -7.6420    -0.1590 f          1 poly     -0.192254
    135 F81         39.0800    -6.0230    -1.5810 f          1 poly     -0.192254
    136 F82         40.5280    -4.4140    -0.1730 f          1 poly     -0.192254
    137 F83         40.4920    -5.7060     1.5650 f          1 poly     -0.192254
    138 C43         41.8330    -6.3640    -0.2470 c3         1 poly      0.384508
    139 C44         43.1480    -5.5350    -0.0810 c3         1 poly      0.384508
    140 F84         41.9690    -7.5040     0.4230 f          1 poly     -0.192254
    141 F85         41.6940    -6.6330    -1.5390 f          1 poly     -0.192254
    142 F86         43.0680    -4.8480     1.0520 f          1 poly     -0.192254
    143 F87         43.2300    -4.6850    -1.1000 f          1 poly     -0.192254
    144 C45         44.4650    -6.3750    -0.0280 c3         1 poly      0.384508
    145 C46         45.7930    -5.5890    -0.2700 c3         1 poly      0.384508
    146 F88         44.3880    -7.3440    -0.9330 f          1 poly     -0.192254
    147 F89         44.5420    -6.9140     1.1820 f          1 poly     -0.192254
    148 F90         45.8010    -4.5300     0.5310 f          1 poly     -0.192254
    149 F91         45.8170    -5.1810    -1.5340 f          1 poly     -0.192254
    150 C47         47.0990    -6.4030     0.0090 c3         1 poly      0.384507
    151 C48         48.4400    -5.6550    -0.2650 c3         1 poly      0.384496
    152 F92         47.0810    -7.5040    -0.7360 f          1 poly     -0.192254
    153 F93         47.0960    -6.7440     1.2910 f          1 poly     -0.192254
    154 F94         48.4850    -4.5970     0.5390 f          1 poly     -0.192254
    155 F95         48.4440    -5.2420    -1.5290 f          1 poly     -0.192254
    156 C49         49.7270    -6.5040    -0.0160 c3         1 poly      0.384184
    157 C50         51.0760    -5.7670    -0.2470 c3         1 poly      0.380123
    158 F96         49.6980    -6.9460     1.2350 f          1 poly     -0.192267
    159 F97         49.6930    -7.5420    -0.8450 f          1 poly     -0.192267
    160 F98         51.1310    -5.4070    -1.5240 f          1 poly     -0.192612
    161 F99         51.0980    -4.6790     0.5170 f          1 poly     -0.192612
    162 C51         52.3340    -6.6170     0.0750 c3         1 poly      0.354487
    163 C52         53.6250    -6.1640    -0.6510 c3         1 poly      0.380123
    164 O11         52.0760    -7.9310    -0.3010 os         1 poly     -0.266773
    165 F100        52.5500    -6.5670     1.3850 f          1 poly     -0.197588
    166 F101        53.2700    -5.3110    -1.6010 f          1 poly     -0.192612
    167 F102        54.1850    -7.2330    -1.2120 f          1 poly     -0.192612
    168 C53         54.6990    -5.4770     0.2090 c3         1 poly      0.384184
    169 C54         52.9430    -8.7990     0.3570 c3         1 poly      0.426964
    170 F103        52.7070    -8.7410     1.6620 f          1 poly     -0.168587
    171 F104        54.2000    -8.4330     0.1230 f          1 poly     -0.168587
    172 C55         52.7450   -10.2020    -0.1180 c3         1 poly      0.401351
    173 C56         51.2900   -10.5440    -0.0420 c3         1 poly      0.457691
    174 F105        50.8770   -10.4600     1.2170 f          1 poly     -0.164877
    175 F106        50.6010    -9.6950    -0.7960 f          1 poly     -0.164877
    176 F107        51.1040   -11.7840    -0.4840 f          1 poly     -0.164877
    177 O12         53.5180   -11.0440     0.6890 os         1 poly     -0.251081
    178 C57         53.0880   -12.3620     0.8250 c3         1 poly      0.551974
    179 F108        51.7740   -12.3710     1.0230 f          1 poly     -0.157269
    180 F109        53.6980   -12.9050     1.8720 f          1 poly     -0.157269
    181 C58         53.4070   -13.1710    -0.3880 c3         1 poly      0.667787
    182 F110        54.6980   -13.0410    -0.6720 f          1 poly     -0.085106
    183 F111        52.6820   -12.7330    -1.4130 f          1 poly     -0.085106
    184 S3          53.0240   -14.8700    -0.0910 s6         1 poly     -0.000530
    185 O13         53.8100   -15.3460     0.9720 o          1 poly     -0.464920
    186 O14         51.6630   -14.9800     0.2510 o          1 poly     -0.464920
    187 O15         53.3110   -15.7690    -1.4080 oh         1 poly     -0.051299
    188 F112        53.1500   -10.3030    -1.3830 f          1 poly     -0.191296
    189 C59         56.0130    -6.2710     0.3700 c3         1 poly      0.384496
    190 F113        54.1990    -5.2520     1.4180 f          1 poly     -0.192267
    191 F114        55.0020    -4.3180    -0.3600 f          1 poly     -0.192267
    192 F115        56.2030    -6.4950     1.6660 f          1 poly     -0.192254
    193 F116        55.9000    -7.4390    -0.2580 f          1 poly     -0.192254
    194 C60         57.2730    -5.5560    -0.1540 c3         1 poly      0.384507
    195 C61         58.5750    -6.1170     0.4500 c3         1 poly      0.384508
    196 F117        57.3210    -5.6850    -1.4780 f          1 poly     -0.192254
    197 F118        57.1930    -4.2670     0.1600 f          1 poly     -0.192254
    198 F119        58.5540    -5.8880     1.7540 f          1 poly     -0.192254
    199 F120        58.6190    -7.4280     0.2370 f          1 poly     -0.192254
    200 C62         59.8630    -5.4970    -0.1070 c3         1 poly      0.384508
    201 C63         61.1100    -6.0820     0.5620 c3         1 poly      0.384508
    202 F121        59.9260    -5.7260    -1.4160 f          1 poly     -0.192254
    203 F122        59.8290    -4.1850     0.1080 f          1 poly     -0.192254
    204 F123        60.8940    -6.0980     1.8730 f          1 poly     -0.192254
    205 F124        61.2830    -7.3310     0.1360 f          1 poly     -0.192254
    206 C64         62.4000    -5.3010     0.3270 c3         1 poly      0.384508
    207 C65         63.4380    -6.0900    -0.4510 c3         1 poly      0.384508
    208 F125        62.9120    -4.9890     1.5100 f          1 poly     -0.192254
    209 F126        62.1150    -4.1890    -0.3380 f          1 poly     -0.192254
    210 F127        63.2990    -5.8040    -1.7400 f          1 poly     -0.192254
    211 F128        63.2310    -7.3900    -0.2600 f          1 poly     -0.192254
    212 C66         64.8650    -5.7660    -0.0300 c3         1 poly      0.384507
    213 C67         65.8550    -6.2730    -1.0550 c3         1 poly      0.384498
    214 F129        65.1220    -6.3450     1.1410 f          1 poly     -0.192254
    215 F130        65.0110    -4.4520     0.0890 f          1 poly     -0.192254
    216 F131        65.6580    -5.5930    -2.1770 f          1 poly     -0.192254
    217 F132        65.6350    -7.5640    -1.2790 f          1 poly     -0.192254
    218 C68         67.3110    -6.1020    -0.6620 c3         1 poly      0.384321
    219 C69         67.8040    -7.2690     0.1560 c3         1 poly      0.383045
    220 F133        68.0450    -6.0400    -1.7710 f          1 poly     -0.192264
    221 F134        67.4650    -4.9790     0.0340 f          1 poly     -0.192264
    222 F135        67.7460    -6.9660     1.4480 f          1 poly     -0.192467
    223 F136        67.0280    -8.3170    -0.0910 f          1 poly     -0.192467
    224 C70         69.2270    -7.6500    -0.1910 c3         1 poly      0.380034
    225 C71         70.1950    -6.5840     0.2200 c3         1 poly      0.454944
    226 O16         69.5450    -8.8310     0.4790 os         1 poly     -0.264588
    227 F137        69.3150    -7.8360    -1.5060 f          1 poly     -0.194272
    228 F138        69.9020    -5.4340    -0.3790 f          1 poly     -0.164964
    229 F139        70.1340    -6.4290     1.5390 f          1 poly     -0.164964
    230 F140        71.4250    -6.9510    -0.1240 f          1 poly     -0.164964
    231 C72         70.7160    -9.4550     0.0530 c3         1 poly      0.427038
    232 F141        71.7780    -8.8070     0.5230 f          1 poly     -0.168586
    233 F142        70.7620    -9.4690    -1.2740 f          1 poly     -0.168586
    234 C73         70.7140   -10.8580     0.5600 c3         1 poly      0.401352
    235 C74         69.5870   -11.6100    -0.0680 c3         1 poly      0.457691
    236 F143        69.7390   -11.6140    -1.3880 f          1 poly     -0.164877
    237 F144        68.4360   -11.0250     0.2470 f          1 poly     -0.164877
    238 F145        69.5840   -12.8610     0.3770 f          1 poly     -0.164877
    239 O17         71.9120   -11.4960     0.2470 os         1 poly     -0.251081
    240 C75         72.0350   -12.6050     1.0760 c3         1 poly      0.551974
    241 F146        70.8120   -12.9980     1.4040 f          1 poly     -0.157269
    242 F147        72.6990   -12.2630     2.1770 f          1 poly     -0.157269
    243 C76         72.7460   -13.7440     0.4050 c3         1 poly      0.667787
    244 F148        74.0500   -13.4850     0.3380 f          1 poly     -0.085106
    245 F149        72.5490   -14.8480     1.1220 f          1 poly     -0.085106
    246 S4          72.1110   -13.9980    -1.2250 s6         1 poly     -0.000530
    247 O18         72.5250   -12.9340    -2.0470 o          1 poly     -0.464920
    248 O19         70.7060   -14.0400    -1.1700 o          1 poly     -0.464920
    249 O20         72.6530   -15.3860    -1.8640 oh         1 poly     -0.051299
    250 F150        70.5590   -10.8380     1.8810 f          1 poly     -0.191296
    251 H1          13.6980   -16.3010    -1.6550 ho         1 poly      0.355634
    252 H2          32.4680   -15.6200    -1.0020 ho         1 poly      0.355634
    253 H3          52.5750   -16.2770    -1.8290 ho         1 poly      0.355634
    254 H4          72.0120   -16.0860    -2.1390 ho         1 poly      0.355634
@<TRIPOS>BOND
     1     1     2 1   
     2     1     3 1   
     3     1     4 1   
     4     1     5 1   
     5     2     6 1   
     6     2     7 1   
     7     2     8 1   
     8     8     9 1   
     9     8    10 1   
    10     8    11 1   
    11     9    12 1   
    12     9    13 1   
    13     9    14 1   
    14    14    15 1   
    15    14    16 1   
    16    14    17 1   
    17    15    18 1   
    18    15    19 1   
    19    15    20 1   
    20    20    21 1   
    21    20    22 1   
    22    20    23 1   
    23    21    24 1   
    24    21    25 1   
    25    21    26 1   
    26    26    27 1   
    27    26    28 1   
    28    26    29 1   
    29    27    30 1   
    30    27    31 1   
    31    27    32 1   
    32    32    33 1   
    33    32    34 1   
    34    32    35 1   
    35    33    36 1   
    36    33    37 1   
    37    33    38 1   
    38    38    39 1   
    39    38    40 1   
    40    38    41 1   
    41    39    42 1   
    42    39    43 1   
    43    39    44 1   
    44    40    45 1   
    45    44    65 1   
    46    44    66 1   
    47    44    67 1   
    48    45    46 1   
    49    45    47 1   
    50    45    48 1   
    51    48    49 1   
    52    48    53 1   
    53    48    64 1   
    54    49    50 1   
    55    49    51 1   
    56    49    52 1   
    57    53    54 1   
    58    54    55 1   
    59    54    56 1   
    60    54    57 1   
    61    57    58 1   
    62    57    59 1   
    63    57    60 1   
    64    60    61 2   
    65    60    62 2   
    66    60    63 1   
    67    63   251 1   
    68    65    68 1   
    69    65    69 1   
    70    65    70 1   
    71    70    71 1   
    72    70    72 1   
    73    70    73 1   
    74    71    74 1   
    75    71    75 1   
    76    71    76 1   
    77    76    77 1   
    78    76    78 1   
    79    76    79 1   
    80    77    80 1   
    81    77    81 1   
    82    77    82 1   
    83    82    83 1   
    84    82    84 1   
    85    82    85 1   
    86    83    86 1   
    87    83    87 1   
    88    83    88 1   
    89    88    89 1   
    90    88    90 1   
    91    88    91 1   
    92    89    92 1   
    93    89    93 1   
    94    89    94 1   
    95    94    95 1   
    96    94    96 1   
    97    94    97 1   
    98    95    98 1   
    99    95    99 1   
   100    95   100 1   
   101   100   101 1   
   102   100   102 1   
   103   100   103 1   
   104   101   104 1   
   105   101   105 1   
   106   101   106 1   
   107   102   107 1   
   108   106   127 1   
   109   106   128 1   
   110   106   129 1   
   111   107   108 1   
   112   107   109 1   
   113   107   110 1   
   114   110   111 1   
   115   110   115 1   
   116   110   126 1   
   117   111   112 1   
   118   111   113 1   
   119   111   114 1   
   120   115   116 1   
   121   116   117 1   
   122   116   118 1   
   123   116   119 1   
   124   119   120 1   
   125   119   121 1   
   126   119   122 1   
   127   122   123 2   
   128   122   124 2   
   129   122   125 1   
   130   125   252 1   
   131   127   130 1   
   132   127   131 1   
   133   127   132 1   
   134   132   133 1   
   135   132   134 1   
   136   132   135 1   
   137   133   136 1   
   138   133   137 1   
   139   133   138 1   
   140   138   139 1   
   141   138   140 1   
   142   138   141 1   
   143   139   142 1   
   144   139   143 1   
   145   139   144 1   
   146   144   145 1   
   147   144   146 1   
   148   144   147 1   
   149   145   148 1   
   150   145   149 1   
   151   145   150 1   
   152   150   151 1   
   153   150   152 1   
   154   150   153 1   
   155   151   154 1   
   156   151   155 1   
   157   151   156 1   
   158   156   157 1   
   159   156   158 1   
   160   156   159 1   
   161   157   160 1   
   162   157   161 1   
   163   157   162 1   
   164   162   163 1   
   165   162   164 1   
   166   162   165 1   
   167   163   166 1   
   168   163   167 1   
   169   163   168 1   
   170   164   169 1   
   171   168   189 1   
   172   168   190 1   
   173   168   191 1   
   174   169   170 1   
   175   169   171 1   
   176   169   172 1   
   177   172   173 1   
   178   172   177 1   
   179   172   188 1   
   180   173   174 1   
   181   173   175 1   
   182   173   176 1   
   183   177   178 1   
   184   178   179 1   
   185   178   180 1   
   186   178   181 1   
   187   181   182 1   
   188   181   183 1   
   189   181   184 1   
   190   184   185 2   
   191   184   186 2   
   192   184   187 1   
   193   187   253 1   
   194   189   192 1   
   195   189   193 1   
   196   189   194 1   
   197   194   195 1   
   198   194   196 1   
   199   194   197 1   
   200   195   198 1   
   201   195   199 1   
   202   195   200 1   
   203   200   201 1   
   204   200   202 1   
   205   200   203 1   
   206   201   204 1   
   207   201   205 1   
   208   201   206 1   
   209   206   207 1   
   210   206   208 1   
   211   206   209 1   
   212   207   210 1   
   213   207   211 1   
   214   207   212 1   
   215   212   213 1   
   216   212   214 1   
   217   212   215 1   
   218   213   216 1   
   219   213   217 1   
   220   213   218 1   
   221   218   219 1   
   222   218   220 1   
   223   218   221 1   
   224   219   222 1   
   225   219   223 1   
   226   219   224 1   
   227   224   225 1   
   228   224   226 1   
   229   224   227 1   
   230   225   228 1   
   231   225   229 1   
   232   225   230 1   
   233   226   231 1   
   234   231   232 1   
   235   231   233 1   
   236   231   234 1   
   237   234   235 1   
   238   234   239 1   
   239   234   250 1   
   240   235   236 1   
   241   235   237 1   
   242   235   238 1   
   243   239   240 1   
   244   240   241 1   
   245   240   242 1   
   246   240   243 1   
   247   243   244 1   
   248   243   245 1   
   249   243   246 1   
   250   246   247 2   
   251   246   248 2   
   252   246   249 1   
   253   249   254 1   
@<TRIPOS>SUBSTRUCTURE
     1 poly        1 TEMP              0 ****  ****    0 ROOT
